Circuit: * D:\Legoduino\simulate\5V_dc_dc.asc

C6: Increased Cpar to 1e-009
C5: Increased Cpar to 1e-012
C4: Increased Cpar to 2.2e-011
C3: Increased Cpar to 2.2e-011
C1: Increased Cpar to 2.2e-011
C2: Increased Cpar to 2.2e-011
Direct Newton iteration for .op point succeeded.

Date: Fri Nov 29 13:35:32 2013
Total elapsed time: 4.425 seconds.

tnom = 27
temp = 27
method = modified trap
totiter = 754597
traniter = 754591
tranpoints = 230376
accept = 159208
rejected = 71168
matrix size = 11
fillins = 4
solver = Normal
Matrix Compiler1: 770 bytes object code size  0.4/0.1/[0.1]
Matrix Compiler2: off  [0.1]/0.2/0.1


