Circuit: * D:\Legoduino\simulate\caps_freq.asc


Date: Fri Nov 29 14:39:07 2013
Total elapsed time: 0.026 seconds.

tnom = 27
temp = 27
method = trap
totiter = 0
traniter = 0
tranpoints = 0
accept = 0
rejected = 0
matrix size = 26
fillins = 1
solver = Normal

